
     RDKit          3D

  7  6  0  0  0  0  0  0  0  0999 V2000
   16.8080    1.7780    5.6370 C   0  0  0  0  0  0  0  0  0  0  0  0
   16.4210    2.0610    7.0970 C   0  0  0  0  0  0  0  0  0  0  0  0
   15.3570    3.3390    8.7640 C   0  0  0  0  0  0  0  0  0  0  0  0
   16.6250    4.5310    7.1760 C   0  0  0  0  0  0  0  0  0  0  0  0
   14.5390    3.5440    6.5260 C   0  0  0  0  0  0  0  0  0  0  0  0
   17.9650    2.5420    5.2740 O   0  0  0  0  0  0  0  0  0  0  0  0
   15.7470    3.3560    7.3430 N   0  0  0  0  0  0  0  0  0  0  0  0
  2  1  1  0
  6  1  1  0
  7  5  1  0
  7  3  1  0
  7  4  1  0
  7  2  1  0
M  CHG  1   7   1
M  END
$$$$
