
     RDKit          3D

 44 47  0  0  0  0  0  0  0  0999 V2000
  104.1060   17.2030   24.7750 C   0  0  0  0  0  0  0  0  0  0  0  0
  102.9950   17.8340   25.3700 C   0  0  0  0  0  0  0  0  0  0  0  0
  101.6950   17.3550   25.1200 C   0  0  0  0  0  0  0  0  0  0  0  0
  100.5980   17.9900   25.7040 O   0  0  0  0  0  0  0  0  0  0  0  0
  101.5060   16.2400   24.2740 C   0  0  0  0  0  0  0  0  0  0  0  0
  102.6210   15.5880   23.6600 C   0  0  0  0  0  0  0  0  0  0  0  0
  102.3710   14.3790   22.7350 C   0  0  0  0  0  0  0  0  0  0  0  0
  103.6440   13.7530   22.0860 C   0  0  0  0  0  0  0  0  0  0  0  0
  104.8980   13.8730   22.9530 C   0  0  0  0  0  0  0  0  0  0  0  0
  105.1780   15.3880   23.2610 C   0  0  0  0  0  0  0  0  0  0  0  0
  103.9570   16.0780   23.9180 C   0  0  0  0  0  0  0  0  0  0  0  0
  106.4620   15.4590   24.1250 C   0  0  0  0  0  0  0  0  0  0  0  0
  107.7110   14.8030   23.5080 C   0  0  0  0  0  0  0  0  0  0  0  0
  107.4630   13.3430   23.1240 C   0  0  0  0  0  0  0  0  0  0  0  0
  106.1700   13.2700   22.2420 C   0  0  0  0  0  0  0  0  0  0  0  0
  106.2280   11.8210   21.7920 C   0  0  0  0  0  0  0  0  0  0  0  0
  107.7010   11.7130   21.2630 C   0  0  0  0  0  0  0  0  0  0  0  0
  108.4940   12.7190   22.1350 C   0  0  0  0  0  0  0  0  0  0  0  0
  109.6100   12.0270   22.7460 O   0  0  0  0  0  0  0  0  0  0  0  0
  107.3790   12.4490   24.4190 C   0  0  0  0  0  0  0  0  0  0  0  0
  105.1149   17.5910   24.9789 H   0  0  0  0  0  0  0  0  0  0  0  0
  103.1438   18.7013   26.0301 H   0  0  0  0  0  0  0  0  0  0  0  0
   99.6824   17.6559   25.5304 H   0  0  0  0  0  0  0  0  0  0  0  0
  100.4881   15.8683   24.0849 H   0  0  0  0  0  0  0  0  0  0  0  0
  101.8734   13.5969   23.3272 H   0  0  0  0  0  0  0  0  0  0  0  0
  101.7633   14.7589   21.9005 H   0  0  0  0  0  0  0  0  0  0  0  0
  103.4506   12.6861   21.9008 H   0  0  0  0  0  0  0  0  0  0  0  0
  103.8397   14.3111   21.1585 H   0  0  0  0  0  0  0  0  0  0  0  0
  104.7126   13.3066   23.8776 H   0  0  0  0  0  0  0  0  0  0  0  0
  105.3414   15.9489   22.3290 H   0  0  0  0  0  0  0  0  0  0  0  0
  106.6905   16.5196   24.3066 H   0  0  0  0  0  0  0  0  0  0  0  0
  106.2426   14.8906   25.0409 H   0  0  0  0  0  0  0  0  0  0  0  0
  107.9972   15.3635   22.6058 H   0  0  0  0  0  0  0  0  0  0  0  0
  108.5122   14.8241   24.2614 H   0  0  0  0  0  0  0  0  0  0  0  0
  106.0998   13.9186   21.3563 H   0  0  0  0  0  0  0  0  0  0  0  0
  106.0517   11.1327   22.6317 H   0  0  0  0  0  0  0  0  0  0  0  0
  105.4644   11.5532   21.0469 H   0  0  0  0  0  0  0  0  0  0  0  0
  108.0889   10.6922   21.3950 H   0  0  0  0  0  0  0  0  0  0  0  0
  107.7796   11.9343   20.1883 H   0  0  0  0  0  0  0  0  0  0  0  0
  108.9522   13.5463   21.5732 H   0  0  0  0  0  0  0  0  0  0  0  0
  109.5296   12.0768   23.7315 H   0  0  0  0  0  0  0  0  0  0  0  0
  107.4392   13.0895   25.3113 H   0  0  0  0  0  0  0  0  0  0  0  0
  106.4254   11.9007   24.4248 H   0  0  0  0  0  0  0  0  0  0  0  0
  108.2138   11.7327   24.4248 H   0  0  0  0  0  0  0  0  0  0  0  0
  2  1  2  0
  3  2  1  0
  4  3  1  0
  5  3  2  0
  6  5  1  0
  7  6  1  0
  8  7  1  0
  9  8  1  0
 10  9  1  0
 11  6  2  0
 11 10  1  0
 11  1  1  0
 12 10  1  0
 13 12  1  0
 14 13  1  0
 15 14  1  0
 15  9  1  0
 16 15  1  0
 17 16  1  0
 18 17  1  0
 18 14  1  0
 19 18  1  0
 20 14  1  0
  1 21  1  0
  2 22  1  0
  4 23  1  0
  5 24  1  0
  7 25  1  0
  7 26  1  0
  8 27  1  0
  8 28  1  0
  9 29  1  0
 10 30  1  0
 12 31  1  0
 12 32  1  0
 13 33  1  0
 13 34  1  0
 15 35  1  0
 16 36  1  0
 16 37  1  0
 17 38  1  0
 17 39  1  0
 18 40  1  0
 19 41  1  0
 20 42  1  0
 20 43  1  0
 20 44  1  0
M  END
