
     RDKit          3D

 31 33  0  0  0  0  0  0  0  0999 V2000
   46.0340   17.4420   14.6490 P   0  0  0  0  0  0  0  0  0  0  0  0
   46.5540   18.2510   13.4860 O   0  0  0  0  0  0  0  0  0  0  0  0
   47.0120   16.4400   15.2140 O   0  0  0  0  0  0  0  0  0  0  0  0
   45.4150   18.2890   15.7590 O   0  0  0  0  0  0  0  0  0  0  0  0
   44.1660   16.6690   12.6400 P   0  0  0  0  0  0  0  0  0  0  0  0
   44.8460   15.7670   11.6960 O   0  0  0  0  0  0  0  0  0  0  0  0
   44.0150   18.0920   12.2140 O   0  0  0  0  0  0  0  0  0  0  0  0
   44.8070   16.5620   14.0920 O   0  0  0  0  0  0  0  0  0  0  0  0
   41.4410   16.0040   12.0240 P   0  0  0  0  0  0  0  0  0  0  0  0
   41.8680   15.9770   10.6070 O   0  0  0  0  0  0  0  0  0  0  0  0
   40.5730   14.9110   12.5970 O   0  0  0  0  0  0  0  0  0  0  0  0
   42.7200   16.0730   13.0040 O   0  0  0  0  0  0  0  0  0  0  0  0
   40.7610   17.4210   12.2300 O   0  0  0  0  0  0  0  0  0  0  0  0
   40.2280   17.8310   13.4740 C   0  0  0  0  0  0  0  0  0  0  0  0
   41.0340   18.9780   14.0300 C   0  0  0  0  0  0  0  0  0  0  0  0
   41.0420   20.0830   13.1380 O   0  0  0  0  0  0  0  0  0  0  0  0
   40.3820   19.5680   15.2680 C   0  0  0  0  0  0  0  0  0  0  0  0
   40.5750   18.8030   16.4260 O   0  0  0  0  0  0  0  0  0  0  0  0
   40.9730   20.9670   15.3420 C   0  0  0  0  0  0  0  0  0  0  0  0
   42.1170   20.9930   16.1720 O   0  0  0  0  0  0  0  0  0  0  0  0
   41.3430   21.2650   13.8920 C   0  0  0  0  0  0  0  0  0  0  0  0
   40.6020   22.3540   13.2400 N   0  0  0  0  0  0  0  0  0  0  0  0
   41.1710   23.3100   12.4420 C   0  0  0  0  0  0  0  0  0  0  0  0
   40.2490   24.1450   11.9420 N   0  0  0  0  0  0  0  0  0  0  0  0
   39.0580   23.6790   12.4180 C   0  0  0  0  0  0  0  0  0  0  0  0
   37.7440   24.1210   12.2640 C   0  0  0  0  0  0  0  0  0  0  0  0
   37.3820   25.1030   11.4300 N   0  0  0  0  0  0  0  0  0  0  0  0
   36.7600   23.4580   12.9350 N   0  0  0  0  0  0  0  0  0  0  0  0
   37.0570   22.4010   13.7400 C   0  0  0  0  0  0  0  0  0  0  0  0
   38.2970   21.9030   13.9090 N   0  0  0  0  0  0  0  0  0  0  0  0
   39.2670   22.5690   13.2440 C   0  0  0  0  0  0  0  0  0  0  0  0
  2  1  2  0
  3  1  1  0
  4  1  1  0
  6  5  2  0
  7  5  1  0
  8  5  1  0
  8  1  1  0
 10  9  2  0
 11  9  1  0
 12  9  1  0
 12  5  1  0
 13  9  1  0
 14 13  1  0
 15 14  1  0
 16 15  1  0
 17 15  1  0
 18 17  1  0
 19 17  1  0
 20 19  1  0
 21 19  1  0
 21 16  1  0
 22 21  1  0
 23 22  1  0
 24 23  2  0
 25 24  1  0
 26 25  2  0
 27 26  1  0
 28 26  1  0
 29 28  2  0
 30 29  1  0
 31 30  2  0
 31 25  1  0
 31 22  1  0
M  END
$$$$
